 xtb: 6.7.1 (edcfbbe)
          09152623303D

 64 71  0     0  0            999 V2000
    2.7734   -1.9720   -1.2950 H   0  0  0  0  0  0  0  0  0  0  0  0
    3.1684   -1.1825   -0.6675 C   0  0  0  0  0  0  0  0  0  0  0  0
    4.3686   -0.4905    1.2792 C   0  0  0  0  0  0  0  0  0  0  0  0
    3.4286    1.1778   -0.3482 C   0  0  0  0  0  0  0  0  0  0  0  0
    3.1292    0.3331    0.9011 C   0  0  0  0  0  0  0  0  0  0  0  0
    3.4870    0.1014   -1.4457 C   0  0  0  0  0  0  0  0  0  0  0  0
    4.3799   -1.5784    0.1891 C   0  0  0  0  0  0  0  0  0  0  0  0
    4.2548   -0.9197    2.2753 H   0  0  0  0  0  0  0  0  0  0  0  0
    2.7097    0.9004    1.7168 H   0  0  0  0  0  0  0  0  0  0  0  0
    4.4676    0.0509   -1.9154 H   0  0  0  0  0  0  0  0  0  0  0  0
    5.2993   -1.5825   -0.3909 H   0  0  0  0  0  0  0  0  0  0  0  0
    5.2648    0.1253    1.2761 H   0  0  0  0  0  0  0  0  0  0  0  0
    4.3720    1.7154   -0.2390 H   0  0  0  0  0  0  0  0  0  0  0  0
    2.7355    0.2631   -2.2164 H   0  0  0  0  0  0  0  0  0  0  0  0
    4.2434   -2.5708    0.6203 H   0  0  0  0  0  0  0  0  0  0  0  0
    2.2491   -0.6820    0.3538 N   0  0  0  0  0  0  0  0  0  0  0  0
    2.3372    2.2655   -0.4451 C   0  0  0  0  0  0  0  0  0  0  0  0
    2.6546    3.3943   -0.1337 O   0  0  0  0  0  0  0  0  0  0  0  0
    1.1140    1.9217   -0.7370 O   0  0  0  0  0  0  0  0  0  0  0  0
    0.9917    0.9616   -1.1230 H   0  0  0  0  0  0  0  0  0  0  0  0
    1.0973   -1.1568    0.7648 C   0  0  0  0  0  0  0  0  0  0  0  0
    0.3483   -0.5193    1.9288 C   0  0  0  0  0  0  0  0  0  0  0  0
    0.9377   -0.7398    2.8259 H   0  0  0  0  0  0  0  0  0  0  0  0
   -0.6035   -1.0473    2.0181 H   0  0  0  0  0  0  0  0  0  0  0  0
    0.5038   -2.1989   -0.0059 C   0  0  0  0  0  0  0  0  0  0  0  0
    1.1709   -2.8609   -0.5316 H   0  0  0  0  0  0  0  0  0  0  0  0
   -0.3165   -2.7126    0.4690 H   0  0  0  0  0  0  0  0  0  0  0  0
    0.6352   -0.3063   -1.7857 O   0  0  0  0  0  0  0  0  0  0  0  0
   -0.2279   -1.1813   -1.3726 C   0  0  0  0  0  0  0  0  0  0  0  0
   -1.6587   -0.8692   -1.0295 C   0  0  0  0  0  0  0  0  0  0  0  0
   -0.2983   -2.0484   -2.0698 H   0  0  0  0  0  0  0  0  0  0  0  0
   -2.2374    0.3826   -1.2517 C   0  0  0  0  0  0  0  0  0  0  0  0
   -2.5012   -1.9275   -0.6549 C   0  0  0  0  0  0  0  0  0  0  0  0
   -3.6155    0.5404   -1.0899 C   0  0  0  0  0  0  0  0  0  0  0  0
   -3.8351   -1.7431   -0.3780 C   0  0  0  0  0  0  0  0  0  0  0  0
   -2.0900   -2.9192   -0.5387 H   0  0  0  0  0  0  0  0  0  0  0  0
   -4.3967   -0.4857   -0.5976 C   0  0  0  0  0  0  0  0  0  0  0  0
   -4.0589    1.5135   -1.2456 H   0  0  0  0  0  0  0  0  0  0  0  0
   -4.4497   -2.5368    0.0163 H   0  0  0  0  0  0  0  0  0  0  0  0
   -5.7474   -0.2136   -0.1978 N   0  0  0  0  0  0  0  0  0  0  0  0
   -6.3907   -1.1275    0.2799 O   0  0  0  0  0  0  0  0  0  0  0  0
   -6.1597    0.9223   -0.3231 O   0  0  0  0  0  0  0  0  0  0  0  0
    0.0455    0.9821    1.9238 C   0  0  0  0  0  0  0  0  0  0  0  0
   -1.2796    1.4316    1.4199 C   0  0  0  0  0  0  0  0  0  0  0  0
    0.8495    1.8992    2.4579 C   0  0  0  0  0  0  0  0  0  0  0  0
   -1.4548    2.9303    1.1732 C   0  0  0  0  0  0  0  0  0  0  0  0
   -2.1207    0.8672    1.8151 H   0  0  0  0  0  0  0  0  0  0  0  0
    0.7187    3.3886    2.3674 C   0  0  0  0  0  0  0  0  0  0  0  0
    1.7200    1.6030    3.0352 H   0  0  0  0  0  0  0  0  0  0  0  0
   -0.3969    3.9536    1.4575 C   0  0  0  0  0  0  0  0  0  0  0  0
   -2.4683    3.3024    1.3055 H   0  0  0  0  0  0  0  0  0  0  0  0
    0.5922    3.7755    3.3834 H   0  0  0  0  0  0  0  0  0  0  0  0
   -0.8630    4.7782    2.0189 H   0  0  0  0  0  0  0  0  0  0  0  0
   -1.5638    1.7031   -1.2028 C   0  0  0  0  0  0  0  0  0  0  0  0
   -1.3442    1.9986    0.0699 C   0  0  0  0  0  0  0  0  0  0  0  0
   -1.4578    2.6865   -2.2333 C   0  0  0  0  0  0  0  0  0  0  0  0
    0.1498    4.6131    0.2157 C   0  0  0  0  0  0  0  0  0  0  0  0
    1.6808    3.7636    2.0038 H   0  0  0  0  0  0  0  0  0  0  0  0
   -0.8348    3.8810   -2.1250 C   0  0  0  0  0  0  0  0  0  0  0  0
   -1.8551    2.4099   -3.2015 H   0  0  0  0  0  0  0  0  0  0  0  0
   -0.0668    4.5816   -1.1112 C   0  0  0  0  0  0  0  0  0  0  0  0
    0.8617    5.3767    0.5132 H   0  0  0  0  0  0  0  0  0  0  0  0
   -0.8273    4.4469   -3.0528 H   0  0  0  0  0  0  0  0  0  0  0  0
    0.5303    5.3391   -1.6150 H   0  0  0  0  0  0  0  0  0  0  0  0
  1  2  1  0  0  0  0
  3  5  1  0  0  0  0
  4  5  1  0  0  0  0
  2  6  1  0  0  0  0
  4  6  1  0  0  0  0
  2  7  1  0  0  0  0
  3  7  1  0  0  0  0
  3  8  1  0  0  0  0
  5  9  1  0  0  0  0
  6 10  1  0  0  0  0
  7 11  1  0  0  0  0
  3 12  1  0  0  0  0
  4 13  1  0  0  0  0
  6 14  1  0  0  0  0
  7 15  1  0  0  0  0
  2 16  1  0  0  0  0
  5 16  1  0  0  0  0
  4 17  1  0  0  0  0
 17 18  2  0  0  0  0
 17 19  4  0  0  0  0
 19 20  1  0  0  0  0
 16 21  4  0  0  0  0
 21 22  1  0  0  0  0
 22 23  1  0  0  0  0
 22 24  1  0  0  0  0
 21 25  4  0  0  0  0
 25 26  1  0  0  0  0
 25 27  1  0  0  0  0
 25 29  1  0  0  0  0
 28 29  4  0  0  0  0
 29 30  1  0  0  0  0
 29 31  1  0  0  0  0
 30 32  4  0  0  0  0
 30 33  4  0  0  0  0
 32 34  4  0  0  0  0
 33 35  4  0  0  0  0
 33 36  1  0  0  0  0
 34 37  4  0  0  0  0
 35 37  4  0  0  0  0
 34 38  1  0  0  0  0
 35 39  1  0  0  0  0
 37 40  1  0  0  0  0
 40 41  4  0  0  0  0
 40 42  4  0  0  0  0
 41 42  1  0  0  0  0
 22 43  1  0  0  0  0
 43 44  1  0  0  0  0
 43 45  2  0  0  0  0
 44 46  1  0  0  0  0
 44 47  1  0  0  0  0
 45 48  1  0  0  0  0
 45 49  1  0  0  0  0
 46 50  1  0  0  0  0
 48 50  1  0  0  0  0
 46 51  1  0  0  0  0
 48 52  1  0  0  0  0
 50 53  1  0  0  0  0
 32 54  1  0  0  0  0
 44 55  1  0  0  0  0
 46 55  1  0  0  0  0
 54 55  2  0  0  0  0
 54 56  1  0  0  0  0
 50 57  1  0  0  0  0
 48 58  1  0  0  0  0
 56 59  2  0  0  0  0
 56 60  1  0  0  0  0
 57 61  2  0  0  0  0
 59 61  1  0  0  0  0
 57 62  1  0  0  0  0
 59 63  1  0  0  0  0
 61 64  1  0  0  0  0
M  END
