 xtb: 6.7.1 (edcfbbe)
          09152610163D

 64 69  0     0  0            999 V2000
    2.7446   -2.5703   -0.4917 H   0  0  0  0  0  0  0  0  0  0  0  0
    3.2180   -1.9483    0.2419 C   0  0  0  0  0  0  0  0  0  0  0  0
    4.8487   -0.7018    1.4515 C   0  0  0  0  0  0  0  0  0  0  0  0
    3.3772    0.9915    0.3773 C   0  0  0  0  0  0  0  0  0  0  0  0
    3.4491   -0.0278    1.4581 C   0  0  0  0  0  0  0  0  0  0  0  0
    3.5459    0.5079   -0.9987 C   0  0  0  0  0  0  0  0  0  0  0  0
    4.6943   -1.7907    0.3754 C   0  0  0  0  0  0  0  0  0  0  0  0
    5.0949   -1.1243    2.4305 H   0  0  0  0  0  0  0  0  0  0  0  0
    3.1797    0.3795    2.4328 H   0  0  0  0  0  0  0  0  0  0  0  0
    4.5427    0.0876   -1.1836 H   0  0  0  0  0  0  0  0  0  0  0  0
    5.1702   -1.5228   -0.5841 H   0  0  0  0  0  0  0  0  0  0  0  0
    5.5992    0.0453    1.1584 H   0  0  0  0  0  0  0  0  0  0  0  0
    3.2128    2.0546    0.5837 H   0  0  0  0  0  0  0  0  0  0  0  0
    3.4090    1.3089   -1.7173 H   0  0  0  0  0  0  0  0  0  0  0  0
    5.1545   -2.7269    0.6966 H   0  0  0  0  0  0  0  0  0  0  0  0
    2.5368   -1.1736    1.0841 N   0  0  0  0  0  0  0  0  0  0  0  0
    0.8456    0.5764   -1.2687 C   0  0  0  0  0  0  0  0  0  0  0  0
    1.3680    0.9474   -2.2557 O   0  0  0  0  0  0  0  0  0  0  0  0
    0.4664   -0.0075   -0.3149 O   0  0  0  0  0  0  0  0  0  0  0  0
    2.7667   -0.3144   -1.1689 H   0  0  0  0  0  0  0  0  0  0  0  0
    1.1700   -1.2077    1.2391 C   0  0  0  0  0  0  0  0  0  0  0  0
    0.4340   -0.1032    2.0262 C   0  0  0  0  0  0  0  0  0  0  0  0
    0.7161   -0.2303    3.0728 H   0  0  0  0  0  0  0  0  0  0  0  0
   -0.6286   -0.3499    1.9585 H   0  0  0  0  0  0  0  0  0  0  0  0
    0.3744   -1.8497    0.1714 C   0  0  0  0  0  0  0  0  0  0  0  0
    0.7412   -2.8393   -0.0687 H   0  0  0  0  0  0  0  0  0  0  0  0
   -0.6750   -1.8850    0.4227 H   0  0  0  0  0  0  0  0  0  0  0  0
    0.1573   -1.4674   -3.5229 O   0  0  0  0  0  0  0  0  0  0  0  0
   -0.0744   -1.5500   -1.7080 C   0  0  0  0  0  0  0  0  0  0  0  0
   -1.4018   -0.7919   -1.5919 C   0  0  0  0  0  0  0  0  0  0  0  0
    0.2019   -2.3845   -3.5638 H   0  0  0  0  0  0  0  0  0  0  0  0
   -1.7714    0.5936   -1.4612 C   0  0  0  0  0  0  0  0  0  0  0  0
   -2.3634   -1.6632   -1.0267 C   0  0  0  0  0  0  0  0  0  0  0  0
   -3.0305    0.9726   -0.9838 C   0  0  0  0  0  0  0  0  0  0  0  0
   -3.5506   -1.2729   -0.4362 C   0  0  0  0  0  0  0  0  0  0  0  0
   -2.1249   -2.7109   -1.0043 H   0  0  0  0  0  0  0  0  0  0  0  0
   -3.9191    0.0697   -0.4347 C   0  0  0  0  0  0  0  0  0  0  0  0
   -3.3044    2.0191   -0.9788 H   0  0  0  0  0  0  0  0  0  0  0  0
   -4.2200   -1.9844    0.0212 H   0  0  0  0  0  0  0  0  0  0  0  0
   -5.0716    0.5885    0.2337 N   0  0  0  0  0  0  0  0  0  0  0  0
   -5.6671   -0.1494    0.9990 O   0  0  0  0  0  0  0  0  0  0  0  0
   -5.3661    1.7493    0.0373 O   0  0  0  0  0  0  0  0  0  0  0  0
    0.5691    1.4500    1.6825 C   0  0  0  0  0  0  0  0  0  0  0  0
   -0.6804    2.1387    0.9921 C   0  0  0  0  0  0  0  0  0  0  0  0
    0.9889    2.1004    2.9665 C   0  0  0  0  0  0  0  0  0  0  0  0
   -1.1582    3.3720    1.7264 C   0  0  0  0  0  0  0  0  0  0  0  0
   -1.5125    1.4274    1.0256 H   0  0  0  0  0  0  0  0  0  0  0  0
    0.4255    3.1529    3.5298 C   0  0  0  0  0  0  0  0  0  0  0  0
    1.8194    1.6304    3.4606 H   0  0  0  0  0  0  0  0  0  0  0  0
   -0.6683    3.8214    2.8762 C   0  0  0  0  0  0  0  0  0  0  0  0
   -1.9705    3.8993    1.2457 H   0  0  0  0  0  0  0  0  0  0  0  0
    0.7653    3.5116    4.4897 H   0  0  0  0  0  0  0  0  0  0  0  0
   -1.0709    4.6989    3.3529 H   0  0  0  0  0  0  0  0  0  0  0  0
   -0.9667    1.8417   -1.6050 C   0  0  0  0  0  0  0  0  0  0  0  0
   -0.5187    2.5777   -0.4814 C   0  0  0  0  0  0  0  0  0  0  0  0
   -0.7229    2.3052   -2.8994 C   0  0  0  0  0  0  0  0  0  0  0  0
    0.1032    3.7998   -0.7434 C   0  0  0  0  0  0  0  0  0  0  0  0
    1.4219    1.5695    1.0032 H   0  0  0  0  0  0  0  0  0  0  0  0
   -0.0343    3.4776   -3.1183 C   0  0  0  0  0  0  0  0  0  0  0  0
   -0.9898    1.6630   -3.7270 H   0  0  0  0  0  0  0  0  0  0  0  0
    0.3405    4.2498   -2.0308 C   0  0  0  0  0  0  0  0  0  0  0  0
    0.3935    4.4264    0.0881 H   0  0  0  0  0  0  0  0  0  0  0  0
    0.1875    3.7938   -4.1258 H   0  0  0  0  0  0  0  0  0  0  0  0
    0.8094    5.2143   -2.1895 H   0  0  0  0  0  0  0  0  0  0  0  0
  1  2  1  0  0  0  0
  3  5  1  0  0  0  0
  4  5  1  0  0  0  0
  4  6  1  0  0  0  0
  2  7  1  0  0  0  0
  3  7  1  0  0  0  0
  3  8  1  0  0  0  0
  5  9  1  0  0  0  0
  6 10  1  0  0  0  0
  7 11  1  0  0  0  0
  3 12  1  0  0  0  0
  4 13  1  0  0  0  0
  6 14  1  0  0  0  0
  7 15  1  0  0  0  0
  2 16  4  0  0  0  0
  5 16  1  0  0  0  0
 17 18  2  0  0  0  0
 17 19  2  0  0  0  0
 18 19  1  0  0  0  0
  6 20  1  0  0  0  0
 16 21  1  0  0  0  0
 21 22  1  0  0  0  0
 22 23  1  0  0  0  0
 22 24  1  0  0  0  0
 21 25  4  0  0  0  0
 25 26  1  0  0  0  0
 25 27  1  0  0  0  0
 25 29  1  0  0  0  0
 28 29  1  0  0  0  0
 29 30  1  0  0  0  0
 28 31  1  0  0  0  0
 30 32  4  0  0  0  0
 30 33  4  0  0  0  0
 32 34  4  0  0  0  0
 33 35  4  0  0  0  0
 33 36  1  0  0  0  0
 34 37  4  0  0  0  0
 35 37  4  0  0  0  0
 34 38  1  0  0  0  0
 35 39  1  0  0  0  0
 37 40  1  0  0  0  0
 40 41  4  0  0  0  0
 40 42  4  0  0  0  0
 41 42  1  0  0  0  0
 22 43  1  0  0  0  0
 43 44  1  0  0  0  0
 43 45  1  0  0  0  0
 44 46  1  0  0  0  0
 44 47  1  0  0  0  0
 45 48  2  0  0  0  0
 45 49  1  0  0  0  0
 46 50  2  0  0  0  0
 48 50  1  0  0  0  0
 46 51  1  0  0  0  0
 48 52  1  0  0  0  0
 50 53  1  0  0  0  0
 32 54  1  0  0  0  0
 44 55  1  0  0  0  0
 54 55  4  0  0  0  0
 54 56  4  0  0  0  0
 55 57  4  0  0  0  0
 43 58  1  0  0  0  0
 56 59  4  0  0  0  0
 56 60  1  0  0  0  0
 57 61  4  0  0  0  0
 59 61  4  0  0  0  0
 57 62  1  0  0  0  0
 59 63  1  0  0  0  0
 61 64  1  0  0  0  0
M  END
